
     RDKit          3D

 32 34  0  0  0  0  0  0  0  0999 V2000
  -46.0990   -5.2520    4.4020 N   0  0  0  0  0  0  0  0  0  0  0  0
  -45.9580   -6.5940    4.5660 C   0  0  0  0  0  0  0  0  0  0  0  0
  -47.2110   -7.4050    4.6030 C   0  0  0  0  0  0  0  0  0  0  0  0
  -44.8020   -7.1710    4.6970 N   0  0  0  0  0  0  0  0  0  0  0  0
  -43.6610   -6.4190    4.6730 C   0  0  0  0  0  0  0  0  0  0  0  0
  -42.5800   -7.0150    4.7980 O   0  0  0  0  0  0  0  0  0  0  0  0
  -43.7310   -4.9610    4.4980 C   0  0  0  0  0  0  0  0  0  0  0  0
  -42.6080   -4.1230    4.4590 C   0  0  0  0  0  0  0  0  0  0  0  0
  -42.7420   -2.7740    4.2890 C   0  0  0  0  0  0  0  0  0  0  0  0
  -44.0420   -2.2230    4.1580 C   0  0  0  0  0  0  0  0  0  0  0  0
  -45.1570   -3.0210    4.1960 C   0  0  0  0  0  0  0  0  0  0  0  0
  -45.0100   -4.3990    4.3680 C   0  0  0  0  0  0  0  0  0  0  0  0
  -41.5310   -1.8730    4.2570 C   0  0  0  0  0  0  0  0  0  0  0  0
  -41.2370   -1.2920    5.5640 N   0  0  0  0  0  0  0  0  0  0  0  0
  -42.7360    1.6870    7.3620 C   0  0  0  0  0  0  0  0  0  0  0  0
  -41.7490    0.3030    7.6680 S   0  0  0  0  0  0  0  0  0  0  0  0
  -41.8200   -0.1580    5.9930 C   0  0  0  0  0  0  0  0  0  0  0  0
  -42.5260    0.7740    5.2330 C   0  0  0  0  0  0  0  0  0  0  0  0
  -43.0540    1.7990    6.0140 C   0  0  0  0  0  0  0  0  0  0  0  0
  -43.1020    2.5380    8.5230 C   0  0  0  0  0  0  0  0  0  0  0  0
  -42.6000    2.3430    9.6290 O   0  0  0  0  0  0  0  0  0  0  0  0
  -43.9920    3.5130    8.3000 N   0  0  0  0  0  0  0  0  0  0  0  0
  -44.3740    4.4340    9.3550 C   0  0  1  0  0  0  0  0  0  0  0  0
  -43.8880    5.8580    9.0620 C   0  0  0  0  0  0  0  0  0  0  0  0
  -44.2670    6.3330    7.6710 C   0  0  0  0  0  0  0  0  0  0  0  0
  -43.8130    7.7440    7.3410 C   0  0  0  0  0  0  0  0  0  0  0  0
  -44.2330    8.6770    8.0500 O   0  0  0  0  0  0  0  0  0  0  0  0
  -43.0350    7.9030    6.3790 O   0  0  0  0  0  0  0  0  0  0  0  0
  -45.8900    4.4020    9.6190 C   0  0  0  0  0  0  0  0  0  0  0  0
  -46.5040    3.3770    9.2690 O   0  0  0  0  0  0  0  0  0  0  0  0
  -46.4050    5.4090   10.1490 O   0  0  0  0  0  0  0  0  0  0  0  0
  -40.3300   -2.0230    6.4300 C   0  0  0  0  0  0  0  0  0  0  0  0
  2  1  1  0
  3  2  1  0
  4  2  2  0
  5  4  1  0
  6  5  2  0
  7  5  1  0
  8  7  2  0
  9  8  1  0
 10  9  2  0
 11 10  1  0
 12 11  2  0
 12  7  1  0
 12  1  1  0
 13  9  1  0
 14 13  1  0
 16 15  1  0
 17 16  1  0
 17 14  1  0
 18 17  2  0
 19 18  1  0
 19 15  2  0
 20 15  1  0
 21 20  2  0
 22 20  1  0
 23 22  1  0
 23 24  1  6
 25 24  1  0
 26 25  1  0
 27 26  2  0
 28 26  1  0
 29 23  1  0
 30 29  2  0
 31 29  1  0
 32 14  1  0
M  END
$$$$
